INSTALL
-------

1. BUILD
--------
to build gnucap-icarus plugin

1) put (copy) plugin in gnucap source directory 
> done
2) build icarus/verilog in usual way (./configure, make, make install)
> ok
3) build shared version for vvp (...)
> make -C icarus/verilog/vvp

4) build gnucap plugin gnucap-icarus:
>cd gnucap-icarus/src
>make -f Makefile.icarus
>cd ..
gnucap-icarus/gnucap-icarus.so library will be created.

TODO. GNU Build system version is incomplete. .a library is built instead of .so.

2. INSTALL
----------
you may copy gnucap-icarus.so to any place at your convenience

3. USE
------

attach gnucap-icarus.so to gnucap using -a switch or .attach command

gnucap -a <your-path>/gnucap-icarus.so .....

this polugin adds EXTPWL fuinction to sources and modifies transient analysis to work with it.
example of usage:

.subckt inv__d (gnd vdd out in)
iin  in  gnd extpwl external="/usr/local/lib/libvvp.so:-M. -mbindsigs netlist-dkc.vvp:%m.in"
vout out gnd extpwl external="/usr/local/lib/libvvp.so:-M. -mbindsigs netlist-dkc.vvp:%m.out"
.ends

for more details look at ./test directory 

4. EXAMPLES
-----------
In directory ./examples : 
>make
>make run
