spice
*    o nc
*    |
*    |
*    |
*    |
*   C|
*    \  
*     \|  B  
*   npn|------------o  nb
*     /|
*    /   
*   E|
*    |
*    V
*
* I_{CE} = 100* I_{BE}

Vce nci 0 2
Ib 0 nb 10e-6
vicq1 nci nc 0
* R1 nb 0 100k


.verilog
paramset myhicumdef hicum0;
	.is = 1e-16
	.rcx = 12.5
endparamset
	
myhicumdef Q1( nc nb 0 );
spice


.print dc i(Ib) v(nc) i(Vicq1) s1(Q1) conv(Q1) iter(0)

.dc Ib 15u 16u 1u Vce 1 1 0.2  basic 


.end
