spice

.param pi=3.14159265358
.param vdd=1

V1 np 0 pulse(iv=0, pv=vdd,dc=0.5, rise=0.1, fall=0.1, freq=1, phase={-pi/2})


.print tran  v(np)

.tran 0 1 0.01

.end
